FoamFile
{
	format      ascii;
	class       dictionary;
	object      blockMeshDict;
}

convertToMeters 1;

vertices (
	(-0.00004472135954999580 0.00002236067977499790 0)
	(0.00004472135954999580 -0.00002236067977499790 0)
	(0.00103090169943749520 0.00195000000000000013 0)
	(0.00094409830056250564 0.00200000000000000004 0)
	(0.00004472135954999580 0.00402236067977499757 0)
	(-0.00004472135954999580 0.00397763932022500259 0)
	(0.00103090169943749520 0.00205000000000000017 0)
	(0.00000000000000000000 0.00000000000000000000 0)
	(0.02096909830056250396 0.00195000000000000013 0)
	(0.00000000000000000000 0.00000000000000000000 0)
	(0.02105590169943749243 0.00200000000000000004 0)
	(0.02195527864045000374 -0.00002236067977499790 0)
	(0.02204472135954999371 0.00002236067977499790 0)
	(0.02096909830056250396 0.00205000000000000017 0)
	(0.02204472135954999371 0.00397763932022500259 0)
	(0.02195527864045000374 0.00402236067977499757 0)
	(-0.00004472135954999580 0.00002236067977499790 0.0001)
	(0.00004472135954999580 -0.00002236067977499790 0.0001)
	(0.00103090169943749520 0.00195000000000000013 0.0001)
	(0.00094409830056250564 0.00200000000000000004 0.0001)
	(0.00004472135954999580 0.00402236067977499757 0.0001)
	(-0.00004472135954999580 0.00397763932022500259 0.0001)
	(0.00103090169943749520 0.00205000000000000017 0.0001)
	(0.00000000000000000000 0.00000000000000000000 0.0001)
	(0.02096909830056250396 0.00195000000000000013 0.0001)
	(0.00000000000000000000 0.00000000000000000000 0.0001)
	(0.02105590169943749243 0.00200000000000000004 0.0001)
	(0.02195527864045000374 -0.00002236067977499790 0.0001)
	(0.02204472135954999371 0.00002236067977499790 0.0001)
	(0.02096909830056250396 0.00205000000000000017 0.0001)
	(0.02204472135954999371 0.00397763932022500259 0.0001)
	(0.02195527864045000374 0.00402236067977499757 0.0001)
	(0.00103090169943749520 0.00200000000000000004 0)
	(0.02096909830056250396 0.00200000000000000004 0)
	(0.00094145898033750361 0.00199472135954999576 0)
	(0.00094145898033750361 0.00200527864045000432 0)
	(0.02105854101966249392 0.00199472135954999576 0)
	(0.02105854101966249392 0.00200527864045000432 0)
	(0.00103090169943749520 0.00200000000000000004 0.0001)
	(0.02096909830056250396 0.00200000000000000004 0.0001)
	(0.00094145898033750361 0.00199472135954999576 0.0001)
	(0.00094145898033750361 0.00200527864045000432 0.0001)
	(0.02105854101966249392 0.00199472135954999576 0.0001)
	(0.02105854101966249392 0.00200527864045000432 0.0001)
);

blocks (
	hex (0 1 2 34 16 17 18 40) (80 896 1) simpleGrading (1 1 1)
	hex (4 5 35 6 20 21 41 22) (80 896 1) simpleGrading (1 1 1)
	hex (6 32 33 13 22 38 39 29) (80 800 1) simpleGrading (1 1 1)
	hex (32 2 8 33 38 18 24 39) (80 800 1) simpleGrading (1 1 1)
	hex (36 8 11 12 42 24 27 28) (80 896 1) simpleGrading (1 1 1)
	hex (13 37 14 15 29 43 30 31) (80 896 1) simpleGrading (1 1 1)
	hex (3 32 6 35 19 38 22 41) (80 80 1) simpleGrading (1 1 1)
	hex (3 34 2 32 19 40 18 38) (80 80 1) simpleGrading (1 1 1)
	hex (33 8 36 10 39 24 42 26) (80 80 1) simpleGrading (1 1 1)
	hex (33 10 37 13 39 26 43 29) (80 80 1) simpleGrading (1 1 1)
);

edges (
);

boundary (
	walls {
		type wall;
		faces (
			(1 2 17 18)
			(34 0 40 16)
			(5 35 21 41)
			(6 4 22 20)
			(2 8 18 24)
			(13 6 29 22)
			(8 11 24 27)
			(12 36 28 42)
			(37 14 43 30)
			(15 13 31 29)
			(34 3 40 19)
			(35 3 41 19)
			(10 36 26 42)
			(10 37 26 43)
		);
	}
	inlet_0 {
		type patch;
		faces (
			(0 1 16 17)
		);
	}
	inlet_1 {
		type patch;
		faces (
			(4 5 20 21)
		);
	}
	outlet_0 {
		type patch;
		faces (
			(11 12 27 28)
		);
	}
	outlet_1 {
		type patch;
		faces (
			(14 15 30 31)
		);
	}
);
